Version 4
SHEET 1 880 680
WIRE -160 -144 -272 -144
WIRE 224 -144 -160 -144
WIRE -272 -96 -272 -144
WIRE 224 -80 224 -144
WIRE -160 48 -160 -144
WIRE 224 96 224 0
WIRE 320 96 224 96
WIRE 416 96 384 96
WIRE 224 144 224 96
WIRE -160 192 -160 128
WIRE -160 192 -192 192
WIRE 160 192 -160 192
WIRE -192 240 -192 192
WIRE 224 272 224 240
WIRE 320 272 224 272
WIRE 400 272 384 272
WIRE 416 272 400 272
WIRE 224 304 224 272
WIRE 400 304 400 272
FLAG -192 320 0
FLAG 224 384 0
FLAG -272 -16 0
FLAG 416 96 Vout
FLAG 416 272 Vin
FLAG 400 384 0
SYMBOL npn 160 144 R0
SYMATTR InstName Q1
SYMATTR Value 2N3904
SYMBOL res 208 288 R0
SYMATTR InstName R2
SYMATTR Value 1000
SYMBOL res -176 32 R0
SYMATTR InstName R4
SYMATTR Value 25000
SYMBOL res -208 224 R0
SYMATTR InstName R5
SYMATTR Value 20000
SYMBOL res 208 -96 R0
SYMATTR InstName R6
SYMATTR Value 1500
SYMBOL voltage -272 -112 R0
WINDOW 123 0 0 Left 0
WINDOW 39 0 0 Left 0
SYMATTR InstName V1
SYMATTR Value 5
SYMBOL cap 384 80 R90
WINDOW 0 0 32 VBottom 2
WINDOW 3 32 32 VTop 2
SYMATTR InstName C1
SYMATTR Value 4.7µ
SYMBOL cap 384 256 R90
WINDOW 0 0 32 VBottom 2
WINDOW 3 32 32 VTop 2
SYMATTR InstName C2
SYMATTR Value 4.7µ
SYMBOL voltage 400 288 R0
WINDOW 123 24 124 Left 2
WINDOW 39 0 0 Left 0
SYMATTR Value2 AC 1
SYMATTR InstName V2
SYMATTR Value SINE(0 10m 50k)
TEXT 424 440 Left 2 !;tran 0 1 .9999
TEXT 432 464 Left 2 !.ac lin 1000k 1 10000k
